trunk/Training/Virtual-2021/Session3/PVSystem_InvControl/invcontrol_convergence/NoConvergence.dss
! Paulo Radatz

Clear

New Circuit.TheveninEquivalent bus1=A pu=1.0 basekv=13.8 
~ Z0=[10, 10] Z1=[10, 10]

New XYCurve.Eff npts=4 xarray=[.1 .2 .4 1.0] yarray=[1 1 1 1]

New XYCurve.FatorPvsT npts=4 xarray=[0 25 75 100] yarray=[1 1 1 1] 

New PVSystem.PV phases=3 bus1=A Pmpp=500 kV=13.8 kVA=600 conn=wye EffCurve=Eff 
~ P-TCurve=FatorPvsT %Pmpp=100 Temperature=25 irradiance=1   

New XYcurve.generic npts=5 yarray=[1 1 0 -1 -1] xarray=[0.5 0.99 1.0 1.01 1.5]

New InvControl.VoltVar mode=VOLTVAR voltage_curvex_ref=rated vvc_curve1=generic 
~ deltaQ_factor=1 RefReactivePower=VARMAX  

Set voltagebases=[13.8]
Calcvoltagebases

set casename=NoConvergence

Set maxcontroli=10

Solve

Show Eventlog
